
**** 05/19/09 12:38:42 ****** PSpice 16.0.0 (August 2007) ***** ID# 1656184 **

 ** Profile: "SCHEMATIC1-bias"  [ Z:\sdr\sdroffset-pspicefiles\schematic1\bias.sim ] 


 ****     CIRCUIT DESCRIPTION


******************************************************************************




** Creating circuit file "bias.cir" 
** WARNING: THIS AUTOMATICALLY GENERATED FILE MAY BE OVERWRITTEN BY SUBSEQUENT SIMULATIONS

*Libraries: 
* Profile Libraries :
* Local Libraries :
* From [PSPICE NETLIST] section of C:\Cadence\SPB_16.01\tools\PSpice\PSpice.ini file:
.lib "nom.lib" 

*Analysis directives: 
.TRAN  0 10 0 
.STEP LIN V_V4 .3 2.5 .1 
.PROBE V(alias(*)) I(alias(*)) W(alias(*)) D(alias(*)) NOISE(alias(*)) 
.INC "..\SCHEMATIC1.net" 



**** INCLUDING SCHEMATIC1.net ****
* source SDROFFSET
R_R5         N25012 N26084  .984e6 TC=0,0 
R_R3         N42219 N43933  253k TC=0,0 
R_R2         0 N44707  1.95k TC=0,0 
C_C1         0 N25012  1.049u  TC=0,0 
R_R7         N24028 N26084  10000 TC=0,0 
X_U3         0 N24028 N26956 N26084 N43933 N25012 N25012 N26084 555C
R_R9         N26084 N44707  4.67k TC=0,0 
V_V1         N26084 0 9Vdc
R_R6         N26956 0  50 TC=0,0 
X_U4         N44707 N42219 N26084 0 N43933 uA741
V_V4         N46811 0 0
R_R11         N42219 N46811  252k TC=0,0 
V_V3         N24028 0  
+PULSE 0 5 0 1e-9 1e-9 .95 1
.PARAM  ts=0

**** RESUMING bias.cir ****
.END

**** 05/19/09 12:38:42 ****** PSpice 16.0.0 (August 2007) ***** ID# 1656184 **

 ** Profile: "SCHEMATIC1-bias"  [ Z:\sdr\sdroffset-pspicefiles\schematic1\bias.sim ] 


 ****     Diode MODEL PARAMETERS


******************************************************************************




               X_U3.DIODE      X_U4.dx         X_U4.dy         
          IS   10.000000E-15  800.000000E-18  800.000000E-18 
          RS     .01            1               1.000000E-03 
         CJO                                   10.000000E-12 


**** 05/19/09 12:38:42 ****** PSpice 16.0.0 (August 2007) ***** ID# 1656184 **

 ** Profile: "SCHEMATIC1-bias"  [ Z:\sdr\sdroffset-pspicefiles\schematic1\bias.sim ] 


 ****     BJT MODEL PARAMETERS


******************************************************************************




               X_U4.qx         
               NPN             
       LEVEL    1            
          IS  800.000000E-18 
          BF   93.75         
          NF    1            
          BR    1            
          NR    1            
         ISS    0            
          RE    0            
          RC    0            
         CJE    0            
         VJE     .75         
         CJC    0            
         VJC     .75         
         MJC     .33         
        XCJC    1            
         CJS    0            
         VJS     .75         
          KF    0            
          AF    1            
          CN    2.42         
           D     .87         


**** 05/19/09 12:38:42 ****** PSpice 16.0.0 (August 2007) ***** ID# 1656184 **

 ** Profile: "SCHEMATIC1-bias"  [ Z:\sdr\sdroffset-pspicefiles\schematic1\bias.sim ] 


 ****     Junction FET MODEL PARAMETERS


******************************************************************************




               X_U3.JNEMOD     
               NJF             
         VTO   -2.5          
        BETA    5.120000E-06 


**** 05/19/09 12:38:42 ****** PSpice 16.0.0 (August 2007) ***** ID# 1656184 **

 ** Profile: "SCHEMATIC1-bias"  [ Z:\sdr\sdroffset-pspicefiles\schematic1\bias.sim ] 


 ****     MOSFET MODEL PARAMETERS


******************************************************************************




               X_U3.PCHAN555   X_U3.NCHAN555   
               PMOS            NMOS            
       LEVEL    1               1            
           L  100.000000E-06  100.000000E-06 
           W  100.000000E-06  100.000000E-06 
         VTO    -.2              .2          
          KP   20.000000E-06   20.000000E-06 
       GAMMA    0               0            
         PHI     .6              .6          
      LAMBDA    0               0            
          IS   10.000000E-15   10.000000E-15 
          JS    0               0            
          PB     .8              .8          
        PBSW     .8              .8          
          CJ    0               0            
        CJSW    0               0            
        CGSO    1.000000E-12    1.000000E-12 
        CGDO    1.000000E-12    1.000000E-12 
        CGBO    1.000000E-12    1.000000E-12 
         TOX    0               0            
          XJ    0               0            
       UCRIT   10.000000E+03   10.000000E+03 
      DIOMOD    1               1            
         VFB    0               0            
        LETA    0               0            
        WETA    0               0            
          U0    0               0            
        TEMP    0               0            
         VDD    0               0            
       XPART    0               0            


               X_U3.PCHAN555_OUT 
               PMOS            
       LEVEL    1            
           L  100.000000E-06 
           W  100.000000E-06 
         VTO    -.2          
          KP   20.000000E-06 
       GAMMA    0            
         PHI     .6          
      LAMBDA    0            
          IS   10.000000E-15 
          JS    0            
          PB     .8          
        PBSW     .8          
         CBD  200.000000E-12 
          CJ    0            
        CJSW    0            
        CGSO    1.000000E-12 
        CGDO    1.000000E-12 
        CGBO    1.000000E-12 
         TOX    0            
          XJ    0            
       UCRIT   10.000000E+03 
      DIOMOD    1            
         VFB    0            
        LETA    0            
        WETA    0            
          U0    0            
        TEMP    0            
         VDD    0            
       XPART    0            


**** 05/19/09 12:38:42 ****** PSpice 16.0.0 (August 2007) ***** ID# 1656184 **

 ** Profile: "SCHEMATIC1-bias"  [ Z:\sdr\sdroffset-pspicefiles\schematic1\bias.sim ] 


 ****     INITIAL TRANSIENT SOLUTION       TEMPERATURE =   27.000 DEG C

 ****     CURRENT STEP                     V_V4 =     .3   


******************************************************************************



 NODE   VOLTAGE     NODE   VOLTAGE     NODE   VOLTAGE     NODE   VOLTAGE


(N24028)    0.0000 (N25012)    9.0000 (N26084)    9.0000 (N26956)    4.8687     

(N42219)    2.6510 (N43933)    5.0314 (N44707)    2.6509 (N46811)     .3000     

(X_U3.1) 409.5E-12 (X_U3.2)    2.5157 (X_U3.3) 25.16E+03 (X_U3.4)    8.2000     

(X_U3.5)    8.0790 (X_U3.6) 39.69E+03 (X_U3.7)    8.2000 (X_U3.8)    8.0908     

(X_U3.9) 66.90E-12 (X_U4.6)-50.08E-06 (X_U4.7)    5.0314 (X_U4.8)    5.0314     

(X_U4.9)    0.0000 (X_U3.10)    9.0000                   (X_U3.11)    9.0000    

(X_U3.12)    9.0000                   (X_U3.13) 409.5E-12                       

(X_U3.14) 341.3E-12                   (X_U3.15)    9.0000                       

(X_U3.16)    9.0000                   (X_U3.17)    9.0000                       

(X_U3.18) 409.5E-12                   (X_U3.19) 204.8E-12                       

(X_U3.20)    9.0000                   (X_U3.21)    8.8908                       

(X_U3.22) 103.7E-12                   (X_U3.23)    8.8790                       

(X_U3.24) 103.8E-12                   (X_U3.25) 102.4E-12                       

(X_U4.10)    2.0437                   (X_U4.11)    8.9607                       

(X_U4.12)    8.9607                   (X_U4.13)    2.0574                       

(X_U4.14)    2.0574                   (X_U4.53)    8.0000                       

(X_U4.54)    1.0000                   (X_U4.90)-277.6E-06                       

(X_U4.91)   40.0000                   (X_U4.92)  -40.0000                       

(X_U4.99)    4.5000                   (X_U3.VDD)    9.0000                  




    VOLTAGE SOURCE CURRENTS
    NAME         CURRENT

    V_V1        -2.875E-03
    V_V4         9.329E-06
    V_V3         9.000E-04
    X_U3.V_U6_V2   8.089E-12
    X_U3.V_U7_V2   8.101E-12
    X_U4.vb     -5.008E-10
    X_U4.vc      2.969E-12
    X_U4.ve      4.008E-12
    X_U4.vlim   -2.776E-07
    X_U4.vlp    -4.000E-11
    X_U4.vln    -4.000E-11

    TOTAL POWER DISSIPATION   2.59E-02  WATTS

Reducing minimum delta to make the circuit converge.

**** 05/19/09 12:38:42 ****** PSpice 16.0.0 (August 2007) ***** ID# 1656184 **

 ** Profile: "SCHEMATIC1-bias"  [ Z:\sdr\sdroffset-pspicefiles\schematic1\bias.sim ] 


 ****     INITIAL TRANSIENT SOLUTION       TEMPERATURE =   27.000 DEG C

 ****     CURRENT STEP                     V_V4 =     .4   


******************************************************************************



 NODE   VOLTAGE     NODE   VOLTAGE     NODE   VOLTAGE     NODE   VOLTAGE


(N24028)    0.0000 (N25012)    9.0000 (N26084)    9.0000 (N26956)    4.8687     

(N42219)    2.6510 (N43933)    4.9310 (N44707)    2.6509 (N46811)     .4000     

(X_U3.1) 409.5E-12 (X_U3.2)    2.4655 (X_U3.3) 24.66E+03 (X_U3.4)    8.2000     

(X_U3.5)    8.0784 (X_U3.6) 40.69E+03 (X_U3.7)    8.2000 (X_U3.8)    8.0914     

(X_U3.9) 66.90E-12 (X_U4.6)-40.60E-06 (X_U4.7)    4.9309 (X_U4.8)    4.9309     

(X_U4.9)    0.0000 (X_U3.10)    9.0000                   (X_U3.11)    9.0000    

(X_U3.12)    9.0000                   (X_U3.13) 409.5E-12                       

(X_U3.14) 341.3E-12                   (X_U3.15)    9.0000                       

(X_U3.16)    9.0000                   (X_U3.17)    9.0000                       

(X_U3.18) 409.5E-12                   (X_U3.19) 204.8E-12                       

(X_U3.20)    9.0000                   (X_U3.21)    8.8914                       

(X_U3.22) 103.7E-12                   (X_U3.23)    8.8784                       

(X_U3.24) 103.8E-12                   (X_U3.25) 102.4E-12                       

(X_U4.10)    2.0437                   (X_U4.11)    8.9607                       

(X_U4.12)    8.9607                   (X_U4.13)    2.0574                       

(X_U4.14)    2.0574                   (X_U4.53)    8.0000                       

(X_U4.54)    1.0000                   (X_U4.90)    -.0017                       

(X_U4.91)   40.0000                   (X_U4.92)  -40.0000                       

(X_U4.99)    4.5000                   (X_U3.VDD)    9.0000                  




    VOLTAGE SOURCE CURRENTS
    NAME         CURRENT

    V_V1        -2.876E-03
    V_V4         8.933E-06
    V_V3         9.000E-04
    X_U3.V_U6_V2   8.088E-12
    X_U3.V_U7_V2   8.101E-12
    X_U4.vb     -4.060E-10
    X_U4.vc      3.070E-12
    X_U4.ve      3.908E-12
    X_U4.vlim   -1.678E-06
    X_U4.vlp    -4.000E-11
    X_U4.vln    -4.000E-11

    TOTAL POWER DISSIPATION   2.59E-02  WATTS

Reducing minimum delta to make the circuit converge.
Reducing minimum delta to make the circuit converge.

**** 05/19/09 12:38:42 ****** PSpice 16.0.0 (August 2007) ***** ID# 1656184 **

 ** Profile: "SCHEMATIC1-bias"  [ Z:\sdr\sdroffset-pspicefiles\schematic1\bias.sim ] 


 ****     INITIAL TRANSIENT SOLUTION       TEMPERATURE =   27.000 DEG C

 ****     CURRENT STEP                     V_V4 =     .5   


******************************************************************************



 NODE   VOLTAGE     NODE   VOLTAGE     NODE   VOLTAGE     NODE   VOLTAGE


(N24028)    0.0000 (N25012)    9.0000 (N26084)    9.0000 (N26956)    4.8687     

(N42219)    2.6510 (N43933)    4.8306 (N44707)    2.6509 (N46811)     .5000     

(X_U3.1) 409.5E-12 (X_U3.2)    2.4153 (X_U3.3) 24.15E+03 (X_U3.4)    8.2000     

(X_U3.5)    8.0779 (X_U3.6) 41.69E+03 (X_U3.7)    8.2000 (X_U3.8)    8.0921     

(X_U3.9) 66.90E-12 (X_U4.6)-31.12E-06 (X_U4.7)    4.8304 (X_U4.8)    4.8304     

(X_U4.9)    0.0000 (X_U3.10)    9.0000                   (X_U3.11)    9.0000    

(X_U3.12)    9.0000                   (X_U3.13) 409.5E-12                       

(X_U3.14) 341.3E-12                   (X_U3.15)    9.0000                       

(X_U3.16)    9.0000                   (X_U3.17)    9.0000                       

(X_U3.18) 409.5E-12                   (X_U3.19) 204.8E-12                       

(X_U3.20)    9.0000                   (X_U3.21)    8.8921                       

(X_U3.22) 103.7E-12                   (X_U3.23)    8.8779                       

(X_U3.24) 103.8E-12                   (X_U3.25) 102.4E-12                       

(X_U4.10)    2.0437                   (X_U4.11)    8.9607                       

(X_U4.12)    8.9607                   (X_U4.13)    2.0574                       

(X_U4.14)    2.0574                   (X_U4.53)    8.0000                       

(X_U4.54)    1.0000                   (X_U4.90)    -.0031                       

(X_U4.91)   40.0000                   (X_U4.92)  -40.0000                       

(X_U4.99)    4.5000                   (X_U3.VDD)    9.0000                  




    VOLTAGE SOURCE CURRENTS
    NAME         CURRENT

    V_V1        -2.877E-03
    V_V4         8.536E-06
    V_V3         9.000E-04
    X_U3.V_U6_V2   8.088E-12
    X_U3.V_U7_V2   8.102E-12
    X_U4.vb     -3.112E-10
    X_U4.vc      3.170E-12
    X_U4.ve      3.807E-12
    X_U4.vlim   -3.079E-06
    X_U4.vlp    -4.000E-11
    X_U4.vln    -4.000E-11

    TOTAL POWER DISSIPATION   2.59E-02  WATTS

Reducing minimum delta to make the circuit converge.

**** 05/19/09 12:38:42 ****** PSpice 16.0.0 (August 2007) ***** ID# 1656184 **

 ** Profile: "SCHEMATIC1-bias"  [ Z:\sdr\sdroffset-pspicefiles\schematic1\bias.sim ] 


 ****     INITIAL TRANSIENT SOLUTION       TEMPERATURE =   27.000 DEG C

 ****     CURRENT STEP                     V_V4 =     .6   


******************************************************************************



 NODE   VOLTAGE     NODE   VOLTAGE     NODE   VOLTAGE     NODE   VOLTAGE


(N24028)    0.0000 (N25012)    9.0000 (N26084)    9.0000 (N26956)    4.8687     

(N42219)    2.6510 (N43933)    4.7302 (N44707)    2.6509 (N46811)     .6000     

(X_U3.1) 409.5E-12 (X_U3.2)    2.3651 (X_U3.3) 23.65E+03 (X_U3.4)    8.2000     

(X_U3.5)    8.0774 (X_U3.6) 42.70E+03 (X_U3.7)    8.2000 (X_U3.8)    8.0927     

(X_U3.9) 66.90E-12 (X_U4.6)-21.63E-06 (X_U4.7)    4.7300 (X_U4.8)    4.7300     

(X_U4.9)    0.0000 (X_U3.10)    9.0000                   (X_U3.11)    9.0000    

(X_U3.12)    9.0000                   (X_U3.13) 409.5E-12                       

(X_U3.14) 341.3E-12                   (X_U3.15)    9.0000                       

(X_U3.16)    9.0000                   (X_U3.17)    9.0000                       

(X_U3.18) 409.5E-12                   (X_U3.19) 204.8E-12                       

(X_U3.20)    9.0000                   (X_U3.21)    8.8927                       

(X_U3.22) 103.7E-12                   (X_U3.23)    8.8774                       

(X_U3.24) 103.8E-12                   (X_U3.25) 102.4E-12                       

(X_U4.10)    2.0437                   (X_U4.11)    8.9607                       

(X_U4.12)    8.9607                   (X_U4.13)    2.0574                       

(X_U4.14)    2.0574                   (X_U4.53)    8.0000                       

(X_U4.54)    1.0000                   (X_U4.90)    -.0045                       

(X_U4.91)   40.0000                   (X_U4.92)  -40.0000                       

(X_U4.99)    4.5000                   (X_U3.VDD)    9.0000                  




    VOLTAGE SOURCE CURRENTS
    NAME         CURRENT

    V_V1        -2.877E-03
    V_V4         8.139E-06
    V_V3         9.000E-04
    X_U3.V_U6_V2   8.087E-12
    X_U3.V_U7_V2   8.103E-12
    X_U4.vb     -2.163E-10
    X_U4.vc      3.271E-12
    X_U4.ve      3.707E-12
    X_U4.vlim   -4.480E-06
    X_U4.vlp    -4.001E-11
    X_U4.vln    -4.000E-11

    TOTAL POWER DISSIPATION   2.59E-02  WATTS

Reducing minimum delta to make the circuit converge.

**** 05/19/09 12:38:42 ****** PSpice 16.0.0 (August 2007) ***** ID# 1656184 **

 ** Profile: "SCHEMATIC1-bias"  [ Z:\sdr\sdroffset-pspicefiles\schematic1\bias.sim ] 


 ****     INITIAL TRANSIENT SOLUTION       TEMPERATURE =   27.000 DEG C

 ****     CURRENT STEP                     V_V4 =     .7   


******************************************************************************



 NODE   VOLTAGE     NODE   VOLTAGE     NODE   VOLTAGE     NODE   VOLTAGE


(N24028)    0.0000 (N25012)    9.0000 (N26084)    9.0000 (N26956)    4.8687     

(N42219)    2.6510 (N43933)    4.6298 (N44707)    2.6509 (N46811)     .7000     

(X_U3.1) 409.5E-12 (X_U3.2)    2.3149 (X_U3.3) 23.15E+03 (X_U3.4)    8.2000     

(X_U3.5)    8.0768 (X_U3.6) 43.70E+03 (X_U3.7)    8.2000 (X_U3.8)    8.0933     

(X_U3.9) 66.90E-12 (X_U4.6)-12.15E-06 (X_U4.7)    4.6295 (X_U4.8)    4.6295     

(X_U4.9)    0.0000 (X_U3.10)    9.0000                   (X_U3.11)    9.0000    

(X_U3.12)    9.0000                   (X_U3.13) 409.5E-12                       

(X_U3.14) 341.3E-12                   (X_U3.15)    9.0000                       

(X_U3.16)    9.0000                   (X_U3.17)    9.0000                       

(X_U3.18) 409.5E-12                   (X_U3.19) 204.8E-12                       

(X_U3.20)    9.0000                   (X_U3.21)    8.8933                       

(X_U3.22) 103.6E-12                   (X_U3.23)    8.8768                       

(X_U3.24) 103.8E-12                   (X_U3.25) 102.4E-12                       

(X_U4.10)    2.0437                   (X_U4.11)    8.9607                       

(X_U4.12)    8.9607                   (X_U4.13)    2.0574                       

(X_U4.14)    2.0574                   (X_U4.53)    8.0000                       

(X_U4.54)    1.0000                   (X_U4.90)    -.0059                       

(X_U4.91)   40.0000                   (X_U4.92)  -40.0000                       

(X_U4.99)    4.5000                   (X_U3.VDD)    9.0000                  




    VOLTAGE SOURCE CURRENTS
    NAME         CURRENT

    V_V1        -2.878E-03
    V_V4         7.742E-06
    V_V3         9.000E-04
    X_U3.V_U6_V2   8.087E-12
    X_U3.V_U7_V2   8.103E-12
    X_U4.vb     -1.215E-10
    X_U4.vc      3.371E-12
    X_U4.ve      3.607E-12
    X_U4.vlim   -5.881E-06
    X_U4.vlp    -4.001E-11
    X_U4.vln    -4.000E-11

    TOTAL POWER DISSIPATION   2.59E-02  WATTS

Reducing minimum delta to make the circuit converge.
Reducing minimum delta to make the circuit converge.

**** 05/19/09 12:38:42 ****** PSpice 16.0.0 (August 2007) ***** ID# 1656184 **

 ** Profile: "SCHEMATIC1-bias"  [ Z:\sdr\sdroffset-pspicefiles\schematic1\bias.sim ] 


 ****     INITIAL TRANSIENT SOLUTION       TEMPERATURE =   27.000 DEG C

 ****     CURRENT STEP                     V_V4 =     .8   


******************************************************************************



 NODE   VOLTAGE     NODE   VOLTAGE     NODE   VOLTAGE     NODE   VOLTAGE


(N24028)    0.0000 (N25012)    9.0000 (N26084)    9.0000 (N26956)    4.8687     

(N42219)    2.6510 (N43933)    4.5294 (N44707)    2.6509 (N46811)     .8000     

(X_U3.1) 409.5E-12 (X_U3.2)    2.2647 (X_U3.3) 22.65E+03 (X_U3.4)    8.2000     

(X_U3.5)    8.0762 (X_U3.6) 44.71E+03 (X_U3.7)    8.2000 (X_U3.8)    8.0939     

(X_U3.9) 66.90E-12 (X_U4.6)-2.668E-06 (X_U4.7)    4.5290 (X_U4.8)    4.5290     

(X_U4.9)    0.0000 (X_U3.10)    9.0000                   (X_U3.11)    9.0000    

(X_U3.12)    9.0000                   (X_U3.13) 409.5E-12                       

(X_U3.14) 341.3E-12                   (X_U3.15)    9.0000                       

(X_U3.16)    9.0000                   (X_U3.17)    9.0000                       

(X_U3.18) 409.5E-12                   (X_U3.19) 204.8E-12                       

(X_U3.20)    9.0000                   (X_U3.21)    8.8939                       

(X_U3.22) 103.6E-12                   (X_U3.23)    8.8762                       

(X_U3.24) 103.8E-12                   (X_U3.25) 102.4E-12                       

(X_U4.10)    2.0437                   (X_U4.11)    8.9607                       

(X_U4.12)    8.9607                   (X_U4.13)    2.0574                       

(X_U4.14)    2.0574                   (X_U4.53)    8.0000                       

(X_U4.54)    1.0000                   (X_U4.90)    -.0073                       

(X_U4.91)   40.0000                   (X_U4.92)  -40.0000                       

(X_U4.99)    4.5000                   (X_U3.VDD)    9.0000                  




    VOLTAGE SOURCE CURRENTS
    NAME         CURRENT

    V_V1        -2.879E-03
    V_V4         7.345E-06
    V_V3         9.000E-04
    X_U3.V_U6_V2   8.086E-12
    X_U3.V_U7_V2   8.104E-12
    X_U4.vb     -2.668E-11
    X_U4.vc      3.471E-12
    X_U4.ve      3.506E-12
    X_U4.vlim   -7.281E-06
    X_U4.vlp    -4.001E-11
    X_U4.vln    -4.000E-11

    TOTAL POWER DISSIPATION   2.59E-02  WATTS

Reducing minimum delta to make the circuit converge.
Reducing minimum delta to make the circuit converge.

**** 05/19/09 12:38:42 ****** PSpice 16.0.0 (August 2007) ***** ID# 1656184 **

 ** Profile: "SCHEMATIC1-bias"  [ Z:\sdr\sdroffset-pspicefiles\schematic1\bias.sim ] 


 ****     INITIAL TRANSIENT SOLUTION       TEMPERATURE =   27.000 DEG C

 ****     CURRENT STEP                     V_V4 =     .9   


******************************************************************************



 NODE   VOLTAGE     NODE   VOLTAGE     NODE   VOLTAGE     NODE   VOLTAGE


(N24028)    0.0000 (N25012)    9.0000 (N26084)    9.0000 (N26956)    4.8687     

(N42219)    2.6510 (N43933)    4.4290 (N44707)    2.6509 (N46811)     .9000     

(X_U3.1) 409.5E-12 (X_U3.2)    2.2145 (X_U3.3) 22.15E+03 (X_U3.4)    8.2000     

(X_U3.5)    8.0757 (X_U3.6) 45.71E+03 (X_U3.7)    8.2000 (X_U3.8)    8.0944     

(X_U3.9) 66.90E-12 (X_U4.6) 6.815E-06 (X_U4.7)    4.4286 (X_U4.8)    4.4286     

(X_U4.9)    0.0000 (X_U3.10)    9.0000                   (X_U3.11)    9.0000    

(X_U3.12)    9.0000                   (X_U3.13) 409.5E-12                       

(X_U3.14) 341.3E-12                   (X_U3.15)    9.0000                       

(X_U3.16)    9.0000                   (X_U3.17)    9.0000                       

(X_U3.18) 409.5E-12                   (X_U3.19) 204.8E-12                       

(X_U3.20)    9.0000                   (X_U3.21)    8.8944                       

(X_U3.22) 103.6E-12                   (X_U3.23)    8.8757                       

(X_U3.24) 103.9E-12                   (X_U3.25) 102.4E-12                       

(X_U4.10)    2.0437                   (X_U4.11)    8.9607                       

(X_U4.12)    8.9607                   (X_U4.13)    2.0574                       

(X_U4.14)    2.0574                   (X_U4.53)    8.0000                       

(X_U4.54)    1.0000                   (X_U4.90)    -.0087                       

(X_U4.91)   40.0000                   (X_U4.92)  -40.0000                       

(X_U4.99)    4.5000                   (X_U3.VDD)    9.0000                  




    VOLTAGE SOURCE CURRENTS
    NAME         CURRENT

    V_V1        -2.879E-03
    V_V4         6.949E-06
    V_V3         9.000E-04
    X_U3.V_U6_V2   8.086E-12
    X_U3.V_U7_V2   8.104E-12
    X_U4.vb      6.815E-11
    X_U4.vc      3.572E-12
    X_U4.ve      3.406E-12
    X_U4.vlim   -8.682E-06
    X_U4.vlp    -4.001E-11
    X_U4.vln    -3.999E-11

    TOTAL POWER DISSIPATION   2.59E-02  WATTS

Reducing minimum delta to make the circuit converge.

**** 05/19/09 12:38:42 ****** PSpice 16.0.0 (August 2007) ***** ID# 1656184 **

 ** Profile: "SCHEMATIC1-bias"  [ Z:\sdr\sdroffset-pspicefiles\schematic1\bias.sim ] 


 ****     INITIAL TRANSIENT SOLUTION       TEMPERATURE =   27.000 DEG C

 ****     CURRENT STEP                     V_V4 =    1     


******************************************************************************



 NODE   VOLTAGE     NODE   VOLTAGE     NODE   VOLTAGE     NODE   VOLTAGE


(N24028)    0.0000 (N25012)    9.0000 (N26084)    9.0000 (N26956)    4.8687     

(N42219)    2.6510 (N43933)    4.3286 (N44707)    2.6509 (N46811)    1.0000     

(X_U3.1) 409.5E-12 (X_U3.2)    2.1643 (X_U3.3) 21.64E+03 (X_U3.4)    8.2000     

(X_U3.5)    8.0751 (X_U3.6) 46.71E+03 (X_U3.7)    8.2000 (X_U3.8)    8.0950     

(X_U3.9) 66.90E-12 (X_U4.6) 16.30E-06 (X_U4.7)    4.3281 (X_U4.8)    4.3281     

(X_U4.9)    0.0000 (X_U3.10)    9.0000                   (X_U3.11)    9.0000    

(X_U3.12)    9.0000                   (X_U3.13) 409.5E-12                       

(X_U3.14) 341.3E-12                   (X_U3.15)    9.0000                       

(X_U3.16)    9.0000                   (X_U3.17)    9.0000                       

(X_U3.18) 409.5E-12                   (X_U3.19) 204.8E-12                       

(X_U3.20)    9.0000                   (X_U3.21)    8.8950                       

(X_U3.22) 103.6E-12                   (X_U3.23)    8.8751                       

(X_U3.24) 103.9E-12                   (X_U3.25) 102.4E-12                       

(X_U4.10)    2.0437                   (X_U4.11)    8.9607                       

(X_U4.12)    8.9607                   (X_U4.13)    2.0574                       

(X_U4.14)    2.0574                   (X_U4.53)    8.0000                       

(X_U4.54)    1.0000                   (X_U4.90)    -.0101                       

(X_U4.91)   40.0000                   (X_U4.92)  -40.0000                       

(X_U4.99)    4.5000                   (X_U3.VDD)    9.0000                  




    VOLTAGE SOURCE CURRENTS
    NAME         CURRENT

    V_V1        -2.880E-03
    V_V4         6.552E-06
    V_V3         9.000E-04
    X_U3.V_U6_V2   8.085E-12
    X_U3.V_U7_V2   8.105E-12
    X_U4.vb      1.630E-10
    X_U4.vc      3.672E-12
    X_U4.ve      3.305E-12
    X_U4.vlim   -1.008E-05
    X_U4.vlp    -4.001E-11
    X_U4.vln    -3.999E-11

    TOTAL POWER DISSIPATION   2.59E-02  WATTS

Reducing minimum delta to make the circuit converge.
Reducing minimum delta to make the circuit converge.

**** 05/19/09 12:38:42 ****** PSpice 16.0.0 (August 2007) ***** ID# 1656184 **

 ** Profile: "SCHEMATIC1-bias"  [ Z:\sdr\sdroffset-pspicefiles\schematic1\bias.sim ] 


 ****     INITIAL TRANSIENT SOLUTION       TEMPERATURE =   27.000 DEG C

 ****     CURRENT STEP                     V_V4 =    1.1   


******************************************************************************



 NODE   VOLTAGE     NODE   VOLTAGE     NODE   VOLTAGE     NODE   VOLTAGE


(N24028)    0.0000 (N25012)    9.0000 (N26084)    9.0000 (N26956)    4.8687     

(N42219)    2.6510 (N43933)    4.2282 (N44707)    2.6509 (N46811)    1.1000     

(X_U3.1) 409.5E-12 (X_U3.2)    2.1141 (X_U3.3) 21.14E+03 (X_U3.4)    8.2000     

(X_U3.5)    8.0745 (X_U3.6) 47.72E+03 (X_U3.7)    8.2000 (X_U3.8)    8.0956     

(X_U3.9) 66.90E-12 (X_U4.6) 25.78E-06 (X_U4.7)    4.2276 (X_U4.8)    4.2276     

(X_U4.9)    0.0000 (X_U3.10)    9.0000                   (X_U3.11)    9.0000    

(X_U3.12)    9.0000                   (X_U3.13) 409.5E-12                       

(X_U3.14) 341.3E-12                   (X_U3.15)    9.0000                       

(X_U3.16)    9.0000                   (X_U3.17)    9.0000                       

(X_U3.18) 409.5E-12                   (X_U3.19) 204.8E-12                       

(X_U3.20)    9.0000                   (X_U3.21)    8.8956                       

(X_U3.22) 103.6E-12                   (X_U3.23)    8.8745                       

(X_U3.24) 103.9E-12                   (X_U3.25) 102.4E-12                       

(X_U4.10)    2.0437                   (X_U4.11)    8.9607                       

(X_U4.12)    8.9607                   (X_U4.13)    2.0574                       

(X_U4.14)    2.0574                   (X_U4.53)    8.0000                       

(X_U4.54)    1.0000                   (X_U4.90)    -.0115                       

(X_U4.91)   40.0000                   (X_U4.92)  -40.0000                       

(X_U4.99)    4.5000                   (X_U3.VDD)    9.0000                  




    VOLTAGE SOURCE CURRENTS
    NAME         CURRENT

    V_V1        -2.881E-03
    V_V4         6.155E-06
    V_V3         9.000E-04
    X_U3.V_U6_V2   8.084E-12
    X_U3.V_U7_V2   8.106E-12
    X_U4.vb      2.578E-10
    X_U4.vc      3.773E-12
    X_U4.ve      3.205E-12
    X_U4.vlim   -1.148E-05
    X_U4.vlp    -4.001E-11
    X_U4.vln    -3.999E-11

    TOTAL POWER DISSIPATION   2.59E-02  WATTS

Reducing minimum delta to make the circuit converge.

**** 05/19/09 12:38:42 ****** PSpice 16.0.0 (August 2007) ***** ID# 1656184 **

 ** Profile: "SCHEMATIC1-bias"  [ Z:\sdr\sdroffset-pspicefiles\schematic1\bias.sim ] 


 ****     INITIAL TRANSIENT SOLUTION       TEMPERATURE =   27.000 DEG C

 ****     CURRENT STEP                     V_V4 =    1.2   


******************************************************************************



 NODE   VOLTAGE     NODE   VOLTAGE     NODE   VOLTAGE     NODE   VOLTAGE


(N24028)    0.0000 (N25012)    9.0000 (N26084)    9.0000 (N26956)    4.8687     

(N42219)    2.6510 (N43933)    4.1278 (N44707)    2.6509 (N46811)    1.2000     

(X_U3.1) 409.5E-12 (X_U3.2)    2.0639 (X_U3.3) 20.64E+03 (X_U3.4)    8.2000     

(X_U3.5)    8.0738 (X_U3.6) 48.72E+03 (X_U3.7)    8.2000 (X_U3.8)    8.0961     

(X_U3.9) 66.90E-12 (X_U4.6) 35.26E-06 (X_U4.7)    4.1272 (X_U4.8)    4.1272     

(X_U4.9)    0.0000 (X_U3.10)    9.0000                   (X_U3.11)    9.0000    

(X_U3.12)    9.0000                   (X_U3.13) 409.5E-12                       

(X_U3.14) 341.3E-12                   (X_U3.15)    9.0000                       

(X_U3.16)    9.0000                   (X_U3.17)    9.0000                       

(X_U3.18) 409.5E-12                   (X_U3.19) 204.8E-12                       

(X_U3.20)    9.0000                   (X_U3.21)    8.8961                       

(X_U3.22) 103.6E-12                   (X_U3.23)    8.8738                       

(X_U3.24) 103.9E-12                   (X_U3.25) 102.4E-12                       

(X_U4.10)    2.0437                   (X_U4.11)    8.9607                       

(X_U4.12)    8.9607                   (X_U4.13)    2.0574                       

(X_U4.14)    2.0574                   (X_U4.53)    8.0000                       

(X_U4.54)    1.0000                   (X_U4.90)    -.0129                       

(X_U4.91)   40.0000                   (X_U4.92)  -40.0000                       

(X_U4.99)    4.5000                   (X_U3.VDD)    9.0000                  




    VOLTAGE SOURCE CURRENTS
    NAME         CURRENT

    V_V1        -2.881E-03
    V_V4         5.758E-06
    V_V3         9.000E-04
    X_U3.V_U6_V2   8.084E-12
    X_U3.V_U7_V2   8.106E-12
    X_U4.vb      3.526E-10
    X_U4.vc      3.873E-12
    X_U4.ve      3.105E-12
    X_U4.vlim   -1.288E-05
    X_U4.vlp    -4.001E-11
    X_U4.vln    -3.999E-11

    TOTAL POWER DISSIPATION   2.59E-02  WATTS

Reducing minimum delta to make the circuit converge.

**** 05/19/09 12:38:42 ****** PSpice 16.0.0 (August 2007) ***** ID# 1656184 **

 ** Profile: "SCHEMATIC1-bias"  [ Z:\sdr\sdroffset-pspicefiles\schematic1\bias.sim ] 


 ****     INITIAL TRANSIENT SOLUTION       TEMPERATURE =   27.000 DEG C

 ****     CURRENT STEP                     V_V4 =    1.3   


******************************************************************************



 NODE   VOLTAGE     NODE   VOLTAGE     NODE   VOLTAGE     NODE   VOLTAGE


(N24028)    0.0000 (N25012)    9.0000 (N26084)    9.0000 (N26956)    4.8687     

(N42219)    2.6510 (N43933)    4.0274 (N44707)    2.6509 (N46811)    1.3000     

(X_U3.1) 409.5E-12 (X_U3.2)    2.0137 (X_U3.3) 20.14E+03 (X_U3.4)    8.2000     

(X_U3.5)    8.0732 (X_U3.6) 49.73E+03 (X_U3.7)    8.2000 (X_U3.8)    8.0966     

(X_U3.9) 66.90E-12 (X_U4.6) 44.74E-06 (X_U4.7)    4.0267 (X_U4.8)    4.0267     

(X_U4.9)    0.0000 (X_U3.10)    9.0000                   (X_U3.11)    9.0000    

(X_U3.12)    9.0000                   (X_U3.13) 409.5E-12                       

(X_U3.14) 341.3E-12                   (X_U3.15)    9.0000                       

(X_U3.16)    9.0000                   (X_U3.17)    9.0000                       

(X_U3.18) 409.5E-12                   (X_U3.19) 204.8E-12                       

(X_U3.20)    9.0000                   (X_U3.21)    8.8966                       

(X_U3.22) 103.6E-12                   (X_U3.23)    8.8732                       

(X_U3.24) 103.9E-12                   (X_U3.25) 102.4E-12                       

(X_U4.10)    2.0437                   (X_U4.11)    8.9607                       

(X_U4.12)    8.9607                   (X_U4.13)    2.0574                       

(X_U4.14)    2.0574                   (X_U4.53)    8.0000                       

(X_U4.54)    1.0000                   (X_U4.90)    -.0143                       

(X_U4.91)   40.0000                   (X_U4.92)  -40.0000                       

(X_U4.99)    4.5000                   (X_U3.VDD)    9.0000                  




    VOLTAGE SOURCE CURRENTS
    NAME         CURRENT

    V_V1        -2.882E-03
    V_V4         5.361E-06
    V_V3         9.000E-04
    X_U3.V_U6_V2   8.083E-12
    X_U3.V_U7_V2   8.107E-12
    X_U4.vb      4.474E-10
    X_U4.vc      3.973E-12
    X_U4.ve      3.004E-12
    X_U4.vlim   -1.429E-05
    X_U4.vlp    -4.002E-11
    X_U4.vln    -3.999E-11

    TOTAL POWER DISSIPATION   2.59E-02  WATTS

Reducing minimum delta to make the circuit converge.

**** 05/19/09 12:38:42 ****** PSpice 16.0.0 (August 2007) ***** ID# 1656184 **

 ** Profile: "SCHEMATIC1-bias"  [ Z:\sdr\sdroffset-pspicefiles\schematic1\bias.sim ] 


 ****     INITIAL TRANSIENT SOLUTION       TEMPERATURE =   27.000 DEG C

 ****     CURRENT STEP                     V_V4 =    1.4   


******************************************************************************



 NODE   VOLTAGE     NODE   VOLTAGE     NODE   VOLTAGE     NODE   VOLTAGE


(N24028)    0.0000 (N25012)    9.0000 (N26084)    9.0000 (N26956)    4.8687     

(N42219)    2.6510 (N43933)    3.9270 (N44707)    2.6509 (N46811)    1.4000     

(X_U3.1) 409.5E-12 (X_U3.2)    1.9635 (X_U3.3) 19.64E+03 (X_U3.4)    8.2000     

(X_U3.5)    8.0725 (X_U3.6) 50.73E+03 (X_U3.7)    8.2000 (X_U3.8)    8.0971     

(X_U3.9) 66.90E-12 (X_U4.6) 54.23E-06 (X_U4.7)    3.9263 (X_U4.8)    3.9263     

(X_U4.9)    0.0000 (X_U3.10)    9.0000                   (X_U3.11)    9.0000    

(X_U3.12)    9.0000                   (X_U3.13) 409.5E-12                       

(X_U3.14) 341.3E-12                   (X_U3.15)    9.0000                       

(X_U3.16)    9.0000                   (X_U3.17)    9.0000                       

(X_U3.18) 409.5E-12                   (X_U3.19) 204.8E-12                       

(X_U3.20)    9.0000                   (X_U3.21)    8.8971                       

(X_U3.22) 103.6E-12                   (X_U3.23)    8.8725                       

(X_U3.24) 103.9E-12                   (X_U3.25) 102.4E-12                       

(X_U4.10)    2.0437                   (X_U4.11)    8.9607                       

(X_U4.12)    8.9607                   (X_U4.13)    2.0574                       

(X_U4.14)    2.0574                   (X_U4.53)    8.0000                       

(X_U4.54)    1.0000                   (X_U4.90)    -.0157                       

(X_U4.91)   40.0000                   (X_U4.92)  -40.0000                       

(X_U4.99)    4.5000                   (X_U3.VDD)    9.0000                  




    VOLTAGE SOURCE CURRENTS
    NAME         CURRENT

    V_V1        -2.883E-03
    V_V4         4.964E-06
    V_V3         9.000E-04
    X_U3.V_U6_V2   8.083E-12
    X_U3.V_U7_V2   8.107E-12
    X_U4.vb      5.423E-10
    X_U4.vc      4.074E-12
    X_U4.ve      2.904E-12
    X_U4.vlim   -1.569E-05
    X_U4.vlp    -4.002E-11
    X_U4.vln    -3.999E-11

    TOTAL POWER DISSIPATION   2.59E-02  WATTS

Reducing minimum delta to make the circuit converge.
Reducing minimum delta to make the circuit converge.

**** 05/19/09 12:38:42 ****** PSpice 16.0.0 (August 2007) ***** ID# 1656184 **

 ** Profile: "SCHEMATIC1-bias"  [ Z:\sdr\sdroffset-pspicefiles\schematic1\bias.sim ] 


 ****     INITIAL TRANSIENT SOLUTION       TEMPERATURE =   27.000 DEG C

 ****     CURRENT STEP                     V_V4 =    1.5   


******************************************************************************



 NODE   VOLTAGE     NODE   VOLTAGE     NODE   VOLTAGE     NODE   VOLTAGE


(N24028)    0.0000 (N25012)    9.0000 (N26084)    9.0000 (N26956)    4.8687     

(N42219)    2.6510 (N43933)    3.8266 (N44707)    2.6509 (N46811)    1.5000     

(X_U3.1) 409.5E-12 (X_U3.2)    1.9133 (X_U3.3) 19.13E+03 (X_U3.4)    8.2000     

(X_U3.5)    8.0719 (X_U3.6) 51.73E+03 (X_U3.7)    8.2000 (X_U3.8)    8.0977     

(X_U3.9) 66.90E-12 (X_U4.6) 63.71E-06 (X_U4.7)    3.8258 (X_U4.8)    3.8258     

(X_U4.9)    0.0000 (X_U3.10)    9.0000                   (X_U3.11)    9.0000    

(X_U3.12)    9.0000                   (X_U3.13) 409.5E-12                       

(X_U3.14) 341.3E-12                   (X_U3.15)    9.0000                       

(X_U3.16)    9.0000                   (X_U3.17)    9.0000                       

(X_U3.18) 409.5E-12                   (X_U3.19) 204.8E-12                       

(X_U3.20)    9.0000                   (X_U3.21)    8.8977                       

(X_U3.22) 103.6E-12                   (X_U3.23)    8.8719                       

(X_U3.24) 103.9E-12                   (X_U3.25) 102.4E-12                       

(X_U4.10)    2.0437                   (X_U4.11)    8.9607                       

(X_U4.12)    8.9607                   (X_U4.13)    2.0574                       

(X_U4.14)    2.0574                   (X_U4.53)    8.0000                       

(X_U4.54)    1.0000                   (X_U4.90)    -.0171                       

(X_U4.91)   40.0000                   (X_U4.92)  -40.0000                       

(X_U4.99)    4.5000                   (X_U3.VDD)    9.0000                  




    VOLTAGE SOURCE CURRENTS
    NAME         CURRENT

    V_V1        -2.883E-03
    V_V4         4.568E-06
    V_V3         9.000E-04
    X_U3.V_U6_V2   8.082E-12
    X_U3.V_U7_V2   8.108E-12
    X_U4.vb      6.371E-10
    X_U4.vc      4.174E-12
    X_U4.ve      2.803E-12
    X_U4.vlim   -1.709E-05
    X_U4.vlp    -4.002E-11
    X_U4.vln    -3.999E-11

    TOTAL POWER DISSIPATION   2.59E-02  WATTS

Reducing minimum delta to make the circuit converge.

**** 05/19/09 12:38:42 ****** PSpice 16.0.0 (August 2007) ***** ID# 1656184 **

 ** Profile: "SCHEMATIC1-bias"  [ Z:\sdr\sdroffset-pspicefiles\schematic1\bias.sim ] 


 ****     INITIAL TRANSIENT SOLUTION       TEMPERATURE =   27.000 DEG C

 ****     CURRENT STEP                     V_V4 =    1.6   


******************************************************************************



 NODE   VOLTAGE     NODE   VOLTAGE     NODE   VOLTAGE     NODE   VOLTAGE


(N24028)    0.0000 (N25012)    9.0000 (N26084)    9.0000 (N26956)    4.8687     

(N42219)    2.6510 (N43933)    3.7262 (N44707)    2.6509 (N46811)    1.6000     

(X_U3.1) 409.5E-12 (X_U3.2)    1.8631 (X_U3.3) 18.63E+03 (X_U3.4)    8.2000     

(X_U3.5)    8.0712 (X_U3.6) 52.74E+03 (X_U3.7)    8.2000 (X_U3.8)    8.0981     

(X_U3.9) 66.90E-12 (X_U4.6) 73.19E-06 (X_U4.7)    3.7253 (X_U4.8)    3.7253     

(X_U4.9)    0.0000 (X_U3.10)    9.0000                   (X_U3.11)    9.0000    

(X_U3.12)    9.0000                   (X_U3.13) 409.5E-12                       

(X_U3.14) 341.3E-12                   (X_U3.15)    9.0000                       

(X_U3.16)    9.0000                   (X_U3.17)    9.0000                       

(X_U3.18) 409.5E-12                   (X_U3.19) 204.8E-12                       

(X_U3.20)    9.0000                   (X_U3.21)    8.8981                       

(X_U3.22) 103.6E-12                   (X_U3.23)    8.8712                       

(X_U3.24) 103.9E-12                   (X_U3.25) 102.4E-12                       

(X_U4.10)    2.0437                   (X_U4.11)    8.9607                       

(X_U4.12)    8.9607                   (X_U4.13)    2.0574                       

(X_U4.14)    2.0574                   (X_U4.53)    8.0000                       

(X_U4.54)    1.0000                   (X_U4.90)    -.0185                       

(X_U4.91)   40.0000                   (X_U4.92)  -40.0000                       

(X_U4.99)    4.5000                   (X_U3.VDD)    9.0000                  




    VOLTAGE SOURCE CURRENTS
    NAME         CURRENT

    V_V1        -2.884E-03
    V_V4         4.171E-06
    V_V3         9.000E-04
    X_U3.V_U6_V2   8.081E-12
    X_U3.V_U7_V2   8.108E-12
    X_U4.vb      7.319E-10
    X_U4.vc      4.275E-12
    X_U4.ve      2.703E-12
    X_U4.vlim   -1.849E-05
    X_U4.vlp    -4.002E-11
    X_U4.vln    -3.999E-11

    TOTAL POWER DISSIPATION   2.59E-02  WATTS

Reducing minimum delta to make the circuit converge.

**** 05/19/09 12:38:42 ****** PSpice 16.0.0 (August 2007) ***** ID# 1656184 **

 ** Profile: "SCHEMATIC1-bias"  [ Z:\sdr\sdroffset-pspicefiles\schematic1\bias.sim ] 


 ****     INITIAL TRANSIENT SOLUTION       TEMPERATURE =   27.000 DEG C

 ****     CURRENT STEP                     V_V4 =    1.7   


******************************************************************************



 NODE   VOLTAGE     NODE   VOLTAGE     NODE   VOLTAGE     NODE   VOLTAGE


(N24028)    0.0000 (N25012)    9.0000 (N26084)    9.0000 (N26956)    4.8687     

(N42219)    2.6510 (N43933)    3.6258 (N44707)    2.6509 (N46811)    1.7000     

(X_U3.1) 409.5E-12 (X_U3.2)    1.8129 (X_U3.3) 18.13E+03 (X_U3.4)    8.2000     

(X_U3.5)    8.0705 (X_U3.6) 53.74E+03 (X_U3.7)    8.2000 (X_U3.8)    8.0986     

(X_U3.9) 66.90E-12 (X_U4.6) 82.67E-06 (X_U4.7)    3.6249 (X_U4.8)    3.6249     

(X_U4.9)    0.0000 (X_U3.10)    9.0000                   (X_U3.11)    9.0000    

(X_U3.12)    9.0000                   (X_U3.13) 409.5E-12                       

(X_U3.14) 341.3E-12                   (X_U3.15)    9.0000                       

(X_U3.16)    9.0000                   (X_U3.17)    9.0000                       

(X_U3.18) 409.5E-12                   (X_U3.19) 204.8E-12                       

(X_U3.20)    9.0000                   (X_U3.21)    8.8986                       

(X_U3.22) 103.6E-12                   (X_U3.23)    8.8705                       

(X_U3.24) 103.9E-12                   (X_U3.25) 102.4E-12                       

(X_U4.10)    2.0437                   (X_U4.11)    8.9607                       

(X_U4.12)    8.9607                   (X_U4.13)    2.0574                       

(X_U4.14)    2.0574                   (X_U4.53)    8.0000                       

(X_U4.54)    1.0000                   (X_U4.90)    -.0199                       

(X_U4.91)   40.0000                   (X_U4.92)  -40.0000                       

(X_U4.99)    4.5000                   (X_U3.VDD)    9.0000                  




    VOLTAGE SOURCE CURRENTS
    NAME         CURRENT

    V_V1        -2.885E-03
    V_V4         3.774E-06
    V_V3         9.000E-04
    X_U3.V_U6_V2   8.080E-12
    X_U3.V_U7_V2   8.109E-12
    X_U4.vb      8.267E-10
    X_U4.vc      4.375E-12
    X_U4.ve      2.603E-12
    X_U4.vlim   -1.989E-05
    X_U4.vlp    -4.002E-11
    X_U4.vln    -3.998E-11

    TOTAL POWER DISSIPATION   2.60E-02  WATTS

Reducing minimum delta to make the circuit converge.

**** 05/19/09 12:38:42 ****** PSpice 16.0.0 (August 2007) ***** ID# 1656184 **

 ** Profile: "SCHEMATIC1-bias"  [ Z:\sdr\sdroffset-pspicefiles\schematic1\bias.sim ] 


 ****     INITIAL TRANSIENT SOLUTION       TEMPERATURE =   27.000 DEG C

 ****     CURRENT STEP                     V_V4 =    1.8   


******************************************************************************



 NODE   VOLTAGE     NODE   VOLTAGE     NODE   VOLTAGE     NODE   VOLTAGE


(N24028)    0.0000 (N25012)    9.0000 (N26084)    9.0000 (N26956)    4.8687     

(N42219)    2.6510 (N43933)    3.5255 (N44707)    2.6509 (N46811)    1.8000     

(X_U3.1) 409.5E-12 (X_U3.2)    1.7627 (X_U3.3) 17.63E+03 (X_U3.4)    8.2000     

(X_U3.5)    8.0698 (X_U3.6) 54.75E+03 (X_U3.7)    8.2000 (X_U3.8)    8.0991     

(X_U3.9) 66.90E-12 (X_U4.6) 92.16E-06 (X_U4.7)    3.5244 (X_U4.8)    3.5244     

(X_U4.9)    0.0000 (X_U3.10)    9.0000                   (X_U3.11)    9.0000    

(X_U3.12)    9.0000                   (X_U3.13) 409.5E-12                       

(X_U3.14) 341.3E-12                   (X_U3.15)    9.0000                       

(X_U3.16)    9.0000                   (X_U3.17)    9.0000                       

(X_U3.18) 409.5E-12                   (X_U3.19) 204.8E-12                       

(X_U3.20)    9.0000                   (X_U3.21)    8.8991                       

(X_U3.22) 103.6E-12                   (X_U3.23)    8.8698                       

(X_U3.24) 103.9E-12                   (X_U3.25) 102.4E-12                       

(X_U4.10)    2.0437                   (X_U4.11)    8.9607                       

(X_U4.12)    8.9607                   (X_U4.13)    2.0574                       

(X_U4.14)    2.0574                   (X_U4.53)    8.0000                       

(X_U4.54)    1.0000                   (X_U4.90)    -.0213                       

(X_U4.91)   40.0000                   (X_U4.92)  -40.0000                       

(X_U4.99)    4.5000                   (X_U3.VDD)    9.0000                  




    VOLTAGE SOURCE CURRENTS
    NAME         CURRENT

    V_V1        -2.885E-03
    V_V4         3.377E-06
    V_V3         9.000E-04
    X_U3.V_U6_V2   8.080E-12
    X_U3.V_U7_V2   8.109E-12
    X_U4.vb      9.216E-10
    X_U4.vc      4.475E-12
    X_U4.ve      2.502E-12
    X_U4.vlim   -2.129E-05
    X_U4.vlp    -4.002E-11
    X_U4.vln    -3.998E-11

    TOTAL POWER DISSIPATION   2.60E-02  WATTS

Reducing minimum delta to make the circuit converge.

**** 05/19/09 12:38:42 ****** PSpice 16.0.0 (August 2007) ***** ID# 1656184 **

 ** Profile: "SCHEMATIC1-bias"  [ Z:\sdr\sdroffset-pspicefiles\schematic1\bias.sim ] 


 ****     INITIAL TRANSIENT SOLUTION       TEMPERATURE =   27.000 DEG C

 ****     CURRENT STEP                     V_V4 =    1.9   


******************************************************************************



 NODE   VOLTAGE     NODE   VOLTAGE     NODE   VOLTAGE     NODE   VOLTAGE


(N24028)    0.0000 (N25012)    9.0000 (N26084)    9.0000 (N26956)    4.8687     

(N42219)    2.6510 (N43933)    3.4251 (N44707)    2.6509 (N46811)    1.9000     

(X_U3.1) 409.5E-12 (X_U3.2)    1.7125 (X_U3.3) 17.13E+03 (X_U3.4)    8.2000     

(X_U3.5)    8.0690 (X_U3.6) 55.75E+03 (X_U3.7)    8.2000 (X_U3.8)    8.0996     

(X_U3.9) 66.90E-12 (X_U4.6) 101.6E-06 (X_U4.7)    3.4239 (X_U4.8)    3.4239     

(X_U4.9)    0.0000 (X_U3.10)    9.0000                   (X_U3.11)    9.0000    

(X_U3.12)    9.0000                   (X_U3.13) 409.5E-12                       

(X_U3.14) 341.3E-12                   (X_U3.15)    9.0000                       

(X_U3.16)    9.0000                   (X_U3.17)    9.0000                       

(X_U3.18) 409.5E-12                   (X_U3.19) 204.8E-12                       

(X_U3.20)    9.0000                   (X_U3.21)    8.8996                       

(X_U3.22) 103.6E-12                   (X_U3.23)    8.8690                       

(X_U3.24) 103.9E-12                   (X_U3.25) 102.4E-12                       

(X_U4.10)    2.0437                   (X_U4.11)    8.9607                       

(X_U4.12)    8.9607                   (X_U4.13)    2.0574                       

(X_U4.14)    2.0574                   (X_U4.53)    8.0000                       

(X_U4.54)    1.0000                   (X_U4.90)    -.0227                       

(X_U4.91)   40.0000                   (X_U4.92)  -40.0000                       

(X_U4.99)    4.5000                   (X_U3.VDD)    9.0000                  




    VOLTAGE SOURCE CURRENTS
    NAME         CURRENT

    V_V1        -2.886E-03
    V_V4         2.980E-06
    V_V3         9.000E-04
    X_U3.V_U6_V2   8.079E-12
    X_U3.V_U7_V2   8.110E-12
    X_U4.vb      1.016E-09
    X_U4.vc      4.576E-12
    X_U4.ve      2.402E-12
    X_U4.vlim   -2.269E-05
    X_U4.vlp    -4.002E-11
    X_U4.vln    -3.998E-11

    TOTAL POWER DISSIPATION   2.60E-02  WATTS

Reducing minimum delta to make the circuit converge.
Reducing minimum delta to make the circuit converge.

**** 05/19/09 12:38:42 ****** PSpice 16.0.0 (August 2007) ***** ID# 1656184 **

 ** Profile: "SCHEMATIC1-bias"  [ Z:\sdr\sdroffset-pspicefiles\schematic1\bias.sim ] 


 ****     INITIAL TRANSIENT SOLUTION       TEMPERATURE =   27.000 DEG C

 ****     CURRENT STEP                     V_V4 =    2     


******************************************************************************



 NODE   VOLTAGE     NODE   VOLTAGE     NODE   VOLTAGE     NODE   VOLTAGE


(N24028)    0.0000 (N25012)    9.0000 (N26084)    9.0000 (N26956)    4.8687     

(N42219)    2.6510 (N43933)    3.3247 (N44707)    2.6509 (N46811)    2.0000     

(X_U3.1) 409.5E-12 (X_U3.2)    1.6623 (X_U3.3) 16.62E+03 (X_U3.4)    8.2000     

(X_U3.5)    8.0682 (X_U3.6) 56.75E+03 (X_U3.7)    8.2000 (X_U3.8)    8.1001     

(X_U3.9) 66.90E-12 (X_U4.6) 111.1E-06 (X_U4.7)    3.3235 (X_U4.8)    3.3235     

(X_U4.9)    0.0000 (X_U3.10)    9.0000                   (X_U3.11)    9.0000    

(X_U3.12)    9.0000                   (X_U3.13) 409.5E-12                       

(X_U3.14) 341.3E-12                   (X_U3.15)    9.0000                       

(X_U3.16)    9.0000                   (X_U3.17)    9.0000                       

(X_U3.18) 409.5E-12                   (X_U3.19) 204.8E-12                       

(X_U3.20)    9.0000                   (X_U3.21)    8.9001                       

(X_U3.22) 103.6E-12                   (X_U3.23)    8.8682                       

(X_U3.24) 103.9E-12                   (X_U3.25) 102.4E-12                       

(X_U4.10)    2.0437                   (X_U4.11)    8.9607                       

(X_U4.12)    8.9607                   (X_U4.13)    2.0575                       

(X_U4.14)    2.0574                   (X_U4.53)    8.0000                       

(X_U4.54)    1.0000                   (X_U4.90)    -.0241                       

(X_U4.91)   40.0000                   (X_U4.92)  -40.0000                       

(X_U4.99)    4.5000                   (X_U3.VDD)    9.0000                  




    VOLTAGE SOURCE CURRENTS
    NAME         CURRENT

    V_V1        -2.887E-03
    V_V4         2.583E-06
    V_V3         9.000E-04
    X_U3.V_U6_V2   8.078E-12
    X_U3.V_U7_V2   8.110E-12
    X_U4.vb      1.111E-09
    X_U4.vc      4.676E-12
    X_U4.ve      2.301E-12
    X_U4.vlim   -2.409E-05
    X_U4.vlp    -4.002E-11
    X_U4.vln    -3.998E-11

    TOTAL POWER DISSIPATION   2.60E-02  WATTS

Reducing minimum delta to make the circuit converge.
Reducing minimum delta to make the circuit converge.

**** 05/19/09 12:38:42 ****** PSpice 16.0.0 (August 2007) ***** ID# 1656184 **

 ** Profile: "SCHEMATIC1-bias"  [ Z:\sdr\sdroffset-pspicefiles\schematic1\bias.sim ] 


 ****     INITIAL TRANSIENT SOLUTION       TEMPERATURE =   27.000 DEG C

 ****     CURRENT STEP                     V_V4 =    2.1   


******************************************************************************



 NODE   VOLTAGE     NODE   VOLTAGE     NODE   VOLTAGE     NODE   VOLTAGE


(N24028)    0.0000 (N25012)    9.0000 (N26084)    9.0000 (N26956)    4.8687     

(N42219)    2.6510 (N43933)    3.2243 (N44707)    2.6509 (N46811)    2.1000     

(X_U3.1) 409.5E-12 (X_U3.2)    1.6121 (X_U3.3) 16.12E+03 (X_U3.4)    8.2000     

(X_U3.5)    8.0674 (X_U3.6) 57.76E+03 (X_U3.7)    8.2000 (X_U3.8)    8.1005     

(X_U3.9) 66.90E-12 (X_U4.6) 120.6E-06 (X_U4.7)    3.2230 (X_U4.8)    3.2230     

(X_U4.9)    0.0000 (X_U3.10)    9.0000                   (X_U3.11)    9.0000    

(X_U3.12)    9.0000                   (X_U3.13) 409.5E-12                       

(X_U3.14) 341.3E-12                   (X_U3.15)    9.0000                       

(X_U3.16)    9.0000                   (X_U3.17)    9.0000                       

(X_U3.18) 409.5E-12                   (X_U3.19) 204.8E-12                       

(X_U3.20)    9.0000                   (X_U3.21)    8.9005                       

(X_U3.22) 103.6E-12                   (X_U3.23)    8.8674                       

(X_U3.24) 104.0E-12                   (X_U3.25) 102.4E-12                       

(X_U4.10)    2.0437                   (X_U4.11)    8.9607                       

(X_U4.12)    8.9607                   (X_U4.13)    2.0575                       

(X_U4.14)    2.0574                   (X_U4.53)    8.0000                       

(X_U4.54)    1.0000                   (X_U4.90)    -.0255                       

(X_U4.91)   40.0000                   (X_U4.92)  -40.0000                       

(X_U4.99)    4.5000                   (X_U3.VDD)    9.0000                  




    VOLTAGE SOURCE CURRENTS
    NAME         CURRENT

    V_V1        -2.887E-03
    V_V4         2.187E-06
    V_V3         9.000E-04
    X_U3.V_U6_V2   8.077E-12
    X_U3.V_U7_V2   8.111E-12
    X_U4.vb      1.206E-09
    X_U4.vc      4.777E-12
    X_U4.ve      2.201E-12
    X_U4.vlim   -2.549E-05
    X_U4.vlp    -4.003E-11
    X_U4.vln    -3.998E-11

    TOTAL POWER DISSIPATION   2.60E-02  WATTS

Reducing minimum delta to make the circuit converge.
Reducing minimum delta to make the circuit converge.

**** 05/19/09 12:38:42 ****** PSpice 16.0.0 (August 2007) ***** ID# 1656184 **

 ** Profile: "SCHEMATIC1-bias"  [ Z:\sdr\sdroffset-pspicefiles\schematic1\bias.sim ] 


 ****     INITIAL TRANSIENT SOLUTION       TEMPERATURE =   27.000 DEG C

 ****     CURRENT STEP                     V_V4 =    2.2   


******************************************************************************



 NODE   VOLTAGE     NODE   VOLTAGE     NODE   VOLTAGE     NODE   VOLTAGE


(N24028)    0.0000 (N25012)    9.0000 (N26084)    9.0000 (N26956)    4.8687     

(N42219)    2.6510 (N43933)    3.1239 (N44707)    2.6509 (N46811)    2.2000     

(X_U3.1) 409.5E-12 (X_U3.2)    1.5619 (X_U3.3) 15.62E+03 (X_U3.4)    8.2000     

(X_U3.5)    8.0666 (X_U3.6) 58.76E+03 (X_U3.7)    8.2000 (X_U3.8)    8.1010     

(X_U3.9) 66.90E-12 (X_U4.6) 130.1E-06 (X_U4.7)    3.1225 (X_U4.8)    3.1225     

(X_U4.9)    0.0000 (X_U3.10)    9.0000                   (X_U3.11)    9.0000    

(X_U3.12)    9.0000                   (X_U3.13) 409.5E-12                       

(X_U3.14) 341.3E-12                   (X_U3.15)    9.0000                       

(X_U3.16)    9.0000                   (X_U3.17)    9.0000                       

(X_U3.18) 409.5E-12                   (X_U3.19) 204.8E-12                       

(X_U3.20)    9.0000                   (X_U3.21)    8.9010                       

(X_U3.22) 103.6E-12                   (X_U3.23)    8.8666                       

(X_U3.24) 104.0E-12                   (X_U3.25) 102.4E-12                       

(X_U4.10)    2.0437                   (X_U4.11)    8.9607                       

(X_U4.12)    8.9607                   (X_U4.13)    2.0575                       

(X_U4.14)    2.0574                   (X_U4.53)    8.0000                       

(X_U4.54)    1.0000                   (X_U4.90)    -.0269                       

(X_U4.91)   40.0000                   (X_U4.92)  -40.0000                       

(X_U4.99)    4.5000                   (X_U3.VDD)    9.0000                  




    VOLTAGE SOURCE CURRENTS
    NAME         CURRENT

    V_V1        -2.888E-03
    V_V4         1.790E-06
    V_V3         9.000E-04
    X_U3.V_U6_V2   8.077E-12
    X_U3.V_U7_V2   8.111E-12
    X_U4.vb      1.301E-09
    X_U4.vc      4.877E-12
    X_U4.ve      2.101E-12
    X_U4.vlim   -2.689E-05
    X_U4.vlp    -4.003E-11
    X_U4.vln    -3.998E-11

    TOTAL POWER DISSIPATION   2.60E-02  WATTS

Reducing minimum delta to make the circuit converge.

**** 05/19/09 12:38:42 ****** PSpice 16.0.0 (August 2007) ***** ID# 1656184 **

 ** Profile: "SCHEMATIC1-bias"  [ Z:\sdr\sdroffset-pspicefiles\schematic1\bias.sim ] 


 ****     INITIAL TRANSIENT SOLUTION       TEMPERATURE =   27.000 DEG C

 ****     CURRENT STEP                     V_V4 =    2.3   


******************************************************************************



 NODE   VOLTAGE     NODE   VOLTAGE     NODE   VOLTAGE     NODE   VOLTAGE


(N24028)    0.0000 (N25012)    9.0000 (N26084)    9.0000 (N26956)    4.8687     

(N42219)    2.6510 (N43933)    3.0235 (N44707)    2.6509 (N46811)    2.3000     

(X_U3.1) 409.5E-12 (X_U3.2)    1.5117 (X_U3.3) 15.12E+03 (X_U3.4)    8.2000     

(X_U3.5)    8.0658 (X_U3.6) 59.77E+03 (X_U3.7)    8.2000 (X_U3.8)    8.1014     

(X_U3.9) 66.90E-12 (X_U4.6) 139.6E-06 (X_U4.7)    3.0221 (X_U4.8)    3.0221     

(X_U4.9)    0.0000 (X_U3.10)    9.0000                   (X_U3.11)    9.0000    

(X_U3.12)    9.0000                   (X_U3.13) 409.5E-12                       

(X_U3.14) 341.3E-12                   (X_U3.15)    9.0000                       

(X_U3.16)    9.0000                   (X_U3.17)    9.0000                       

(X_U3.18) 409.5E-12                   (X_U3.19) 204.8E-12                       

(X_U3.20)    9.0000                   (X_U3.21)    8.9014                       

(X_U3.22) 103.5E-12                   (X_U3.23)    8.8658                       

(X_U3.24) 104.0E-12                   (X_U3.25) 102.4E-12                       

(X_U4.10)    2.0437                   (X_U4.11)    8.9607                       

(X_U4.12)    8.9607                   (X_U4.13)    2.0575                       

(X_U4.14)    2.0574                   (X_U4.53)    8.0000                       

(X_U4.54)    1.0000                   (X_U4.90)    -.0283                       

(X_U4.91)   40.0000                   (X_U4.92)  -40.0000                       

(X_U4.99)    4.5000                   (X_U3.VDD)    9.0000                  




    VOLTAGE SOURCE CURRENTS
    NAME         CURRENT

    V_V1        -2.889E-03
    V_V4         1.393E-06
    V_V3         9.000E-04
    X_U3.V_U6_V2   8.076E-12
    X_U3.V_U7_V2   8.111E-12
    X_U4.vb      1.396E-09
    X_U4.vc      4.977E-12
    X_U4.ve      2.000E-12
    X_U4.vlim   -2.829E-05
    X_U4.vlp    -4.003E-11
    X_U4.vln    -3.998E-11

    TOTAL POWER DISSIPATION   2.60E-02  WATTS

Reducing minimum delta to make the circuit converge.

**** 05/19/09 12:38:42 ****** PSpice 16.0.0 (August 2007) ***** ID# 1656184 **

 ** Profile: "SCHEMATIC1-bias"  [ Z:\sdr\sdroffset-pspicefiles\schematic1\bias.sim ] 


 ****     INITIAL TRANSIENT SOLUTION       TEMPERATURE =   27.000 DEG C

 ****     CURRENT STEP                     V_V4 =    2.4   


******************************************************************************



 NODE   VOLTAGE     NODE   VOLTAGE     NODE   VOLTAGE     NODE   VOLTAGE


(N24028)    0.0000 (N25012)    9.0000 (N26084)    9.0000 (N26956)    4.8687     

(N42219)    2.6510 (N43933)    2.9231 (N44707)    2.6509 (N46811)    2.4000     

(X_U3.1) 409.5E-12 (X_U3.2)    1.4615 (X_U3.3) 14.62E+03 (X_U3.4)    8.2000     

(X_U3.5)    8.0649 (X_U3.6) 60.77E+03 (X_U3.7)    8.2000 (X_U3.8)    8.1018     

(X_U3.9) 66.90E-12 (X_U4.6) 149.1E-06 (X_U4.7)    2.9216 (X_U4.8)    2.9216     

(X_U4.9)    0.0000 (X_U3.10)    9.0000                   (X_U3.11)    9.0000    

(X_U3.12)    9.0000                   (X_U3.13) 409.5E-12                       

(X_U3.14) 341.3E-12                   (X_U3.15)    9.0000                       

(X_U3.16)    9.0000                   (X_U3.17)    9.0000                       

(X_U3.18) 409.5E-12                   (X_U3.19) 204.8E-12                       

(X_U3.20)    9.0000                   (X_U3.21)    8.9018                       

(X_U3.22) 103.5E-12                   (X_U3.23)    8.8649                       

(X_U3.24) 104.0E-12                   (X_U3.25) 102.4E-12                       

(X_U4.10)    2.0437                   (X_U4.11)    8.9607                       

(X_U4.12)    8.9607                   (X_U4.13)    2.0575                       

(X_U4.14)    2.0574                   (X_U4.53)    8.0000                       

(X_U4.54)    1.0000                   (X_U4.90)    -.0297                       

(X_U4.91)   40.0000                   (X_U4.92)  -40.0000                       

(X_U4.99)    4.5000                   (X_U3.VDD)    9.0000                  




    VOLTAGE SOURCE CURRENTS
    NAME         CURRENT

    V_V1        -2.889E-03
    V_V4         9.962E-07
    V_V3         9.000E-04
    X_U3.V_U6_V2   8.075E-12
    X_U3.V_U7_V2   8.112E-12
    X_U4.vb      1.491E-09
    X_U4.vc      5.078E-12
    X_U4.ve      1.900E-12
    X_U4.vlim   -2.969E-05
    X_U4.vlp    -4.003E-11
    X_U4.vln    -3.997E-11

    TOTAL POWER DISSIPATION   2.60E-02  WATTS

Reducing minimum delta to make the circuit converge.
Reducing minimum delta to make the circuit converge.

**** 05/19/09 12:38:42 ****** PSpice 16.0.0 (August 2007) ***** ID# 1656184 **

 ** Profile: "SCHEMATIC1-bias"  [ Z:\sdr\sdroffset-pspicefiles\schematic1\bias.sim ] 


 ****     INITIAL TRANSIENT SOLUTION       TEMPERATURE =   27.000 DEG C

 ****     CURRENT STEP                     V_V4 =    2.5   


******************************************************************************



 NODE   VOLTAGE     NODE   VOLTAGE     NODE   VOLTAGE     NODE   VOLTAGE


(N24028)    0.0000 (N25012)    9.0000 (N26084)    9.0000 (N26956)    4.8687     

(N42219)    2.6510 (N43933)    2.8227 (N44707)    2.6509 (N46811)    2.5000     

(X_U3.1) 409.5E-12 (X_U3.2)    1.4113 (X_U3.3) 14.11E+03 (X_U3.4)    8.2000     

(X_U3.5)    8.0640 (X_U3.6) 61.77E+03 (X_U3.7)    8.2000 (X_U3.8)    8.1022     

(X_U3.9) 66.90E-12 (X_U4.6) 158.5E-06 (X_U4.7)    2.8211 (X_U4.8)    2.8211     

(X_U4.9)    0.0000 (X_U3.10)    9.0000                   (X_U3.11)    9.0000    

(X_U3.12)    9.0000                   (X_U3.13) 409.5E-12                       

(X_U3.14) 341.3E-12                   (X_U3.15)    9.0000                       

(X_U3.16)    9.0000                   (X_U3.17)    9.0000                       

(X_U3.18) 409.5E-12                   (X_U3.19) 204.8E-12                       

(X_U3.20)    9.0000                   (X_U3.21)    8.9022                       

(X_U3.22) 103.5E-12                   (X_U3.23)    8.8640                       

(X_U3.24) 104.0E-12                   (X_U3.25) 102.4E-12                       

(X_U4.10)    2.0437                   (X_U4.11)    8.9607                       

(X_U4.12)    8.9607                   (X_U4.13)    2.0575                       

(X_U4.14)    2.0574                   (X_U4.53)    8.0000                       

(X_U4.54)    1.0000                   (X_U4.90)    -.0311                       

(X_U4.91)   40.0000                   (X_U4.92)  -40.0000                       

(X_U4.99)    4.5000                   (X_U3.VDD)    9.0000                  




    VOLTAGE SOURCE CURRENTS
    NAME         CURRENT

    V_V1        -2.890E-03
    V_V4         5.993E-07
    V_V3         9.000E-04
    X_U3.V_U6_V2   8.074E-12
    X_U3.V_U7_V2   8.112E-12
    X_U4.vb      1.585E-09
    X_U4.vc      5.178E-12
    X_U4.ve      1.800E-12
    X_U4.vlim   -3.109E-05
    X_U4.vlp    -4.003E-11
    X_U4.vln    -3.997E-11

    TOTAL POWER DISSIPATION   2.60E-02  WATTS

Reducing minimum delta to make the circuit converge.
Reducing minimum delta to make the circuit converge.


          JOB CONCLUDED

**** 05/19/09 12:38:42 ****** PSpice 16.0.0 (August 2007) ***** ID# 1656184 **

 ** Profile: "SCHEMATIC1-bias"  [ Z:\sdr\sdroffset-pspicefiles\schematic1\bias.sim ] 


 ****     JOB STATISTICS SUMMARY

 ****     CURRENT STEP                     V_V4 =    2.5   


******************************************************************************



  Total job time (using Solver 1)   =       28.53
